examples/data/enwl/lv-network-models/network_7/Feeder_5/Loads.dss
New Load.LOAD1 Phases=1 Bus1=55.2 kV=0.23 kW=1 PF=0.95
New Load.LOAD2 Phases=1 Bus1=73.1 kV=0.23 kW=1 PF=0.95
New Load.LOAD3 Phases=1 Bus1=76.1 kV=0.23 kW=1 PF=0.95
New Load.LOAD4 Phases=1 Bus1=79.1 kV=0.23 kW=1 PF=0.95
New Load.LOAD5 Phases=1 Bus1=82.3 kV=0.23 kW=1 PF=0.95
New Load.LOAD6 Phases=1 Bus1=92.1 kV=0.23 kW=1 PF=0.95
New Load.LOAD7 Phases=1 Bus1=97.1 kV=0.23 kW=1 PF=0.95
New Load.LOAD8 Phases=1 Bus1=103.3 kV=0.23 kW=1 PF=0.95
New Load.LOAD9 Phases=1 Bus1=114.1 kV=0.23 kW=1 PF=0.95
New Load.LOAD10 Phases=1 Bus1=119.1 kV=0.23 kW=1 PF=0.95
New Load.LOAD11 Phases=1 Bus1=120.1 kV=0.23 kW=1 PF=0.95
New Load.LOAD12 Phases=1 Bus1=123.2 kV=0.23 kW=1 PF=0.95
New Load.LOAD13 Phases=1 Bus1=127.3 kV=0.23 kW=1 PF=0.95
New Load.LOAD14 Phases=1 Bus1=135.2 kV=0.23 kW=1 PF=0.95
New Load.LOAD15 Phases=1 Bus1=138.3 kV=0.23 kW=1 PF=0.95
New Load.LOAD16 Phases=1 Bus1=142.1 kV=0.23 kW=1 PF=0.95
New Load.LOAD17 Phases=1 Bus1=149.1 kV=0.23 kW=1 PF=0.95
New Load.LOAD18 Phases=1 Bus1=153.1 kV=0.23 kW=1 PF=0.95
New Load.LOAD19 Phases=1 Bus1=164.1 kV=0.23 kW=1 PF=0.95
New Load.LOAD20 Phases=1 Bus1=166.2 kV=0.23 kW=1 PF=0.95
New Load.LOAD21 Phases=1 Bus1=185.2 kV=0.23 kW=1 PF=0.95
New Load.LOAD22 Phases=1 Bus1=191.1 kV=0.23 kW=1 PF=0.95
New Load.LOAD23 Phases=1 Bus1=209.2 kV=0.23 kW=1 PF=0.95
New Load.LOAD24 Phases=1 Bus1=243.1 kV=0.23 kW=1 PF=0.95
New Load.LOAD25 Phases=1 Bus1=249.2 kV=0.23 kW=1 PF=0.95
New Load.LOAD26 Phases=1 Bus1=258.1 kV=0.23 kW=1 PF=0.95
New Load.LOAD27 Phases=1 Bus1=261.2 kV=0.23 kW=1 PF=0.95
New Load.LOAD28 Phases=1 Bus1=262.2 kV=0.23 kW=1 PF=0.95
New Load.LOAD29 Phases=1 Bus1=268.1 kV=0.23 kW=1 PF=0.95
New Load.LOAD30 Phases=1 Bus1=289.2 kV=0.23 kW=1 PF=0.95
New Load.LOAD31 Phases=1 Bus1=290.2 kV=0.23 kW=1 PF=0.95
New Load.LOAD32 Phases=1 Bus1=295.1 kV=0.23 kW=1 PF=0.95
New Load.LOAD33 Phases=1 Bus1=304.1 kV=0.23 kW=1 PF=0.95
New Load.LOAD34 Phases=1 Bus1=311.1 kV=0.23 kW=1 PF=0.95
New Load.LOAD35 Phases=1 Bus1=343.1 kV=0.23 kW=1 PF=0.95
New Load.LOAD36 Phases=1 Bus1=349.3 kV=0.23 kW=1 PF=0.95
New Load.LOAD37 Phases=1 Bus1=356.3 kV=0.23 kW=1 PF=0.95
New Load.LOAD38 Phases=1 Bus1=360.3 kV=0.23 kW=1 PF=0.95
New Load.LOAD39 Phases=1 Bus1=364.3 kV=0.23 kW=1 PF=0.95
New Load.LOAD40 Phases=1 Bus1=370.3 kV=0.23 kW=1 PF=0.95
New Load.LOAD41 Phases=1 Bus1=375.3 kV=0.23 kW=1 PF=0.95
New Load.LOAD42 Phases=1 Bus1=379.3 kV=0.23 kW=1 PF=0.95
New Load.LOAD43 Phases=1 Bus1=383.3 kV=0.23 kW=1 PF=0.95
New Load.LOAD44 Phases=1 Bus1=386.3 kV=0.23 kW=1 PF=0.95
New Load.LOAD45 Phases=1 Bus1=387.3 kV=0.23 kW=1 PF=0.95
New Load.LOAD46 Phases=1 Bus1=390.3 kV=0.23 kW=1 PF=0.95
New Load.LOAD47 Phases=1 Bus1=393.3 kV=0.23 kW=1 PF=0.95
New Load.LOAD48 Phases=1 Bus1=396.3 kV=0.23 kW=1 PF=0.95
New Load.LOAD49 Phases=1 Bus1=405.3 kV=0.23 kW=1 PF=0.95
New Load.LOAD50 Phases=1 Bus1=409.3 kV=0.23 kW=1 PF=0.95
New Load.LOAD51 Phases=1 Bus1=413.3 kV=0.23 kW=1 PF=0.95
New Load.LOAD52 Phases=1 Bus1=417.3 kV=0.23 kW=1 PF=0.95
New Load.LOAD53 Phases=1 Bus1=426.3 kV=0.23 kW=1 PF=0.95
New Load.LOAD54 Phases=1 Bus1=431.3 kV=0.23 kW=1 PF=0.95
New Load.LOAD55 Phases=1 Bus1=433.3 kV=0.23 kW=1 PF=0.95
New Load.LOAD56 Phases=1 Bus1=448.3 kV=0.23 kW=1 PF=0.95
New Load.LOAD57 Phases=1 Bus1=449.3 kV=0.23 kW=1 PF=0.95
New Load.LOAD58 Phases=1 Bus1=460.3 kV=0.23 kW=1 PF=0.95
New Load.LOAD59 Phases=1 Bus1=463.3 kV=0.23 kW=1 PF=0.95
New Load.LOAD60 Phases=1 Bus1=468.3 kV=0.23 kW=1 PF=0.95
New Load.LOAD61 Phases=1 Bus1=471.3 kV=0.23 kW=1 PF=0.95